 # Hcp Co with box vectors H1=[2-1-10], H2=[-12-10], H3=[0001].
 CRYSTAL
 PRIMVEC
      2.51000000        0.00000000        0.00000000
     -1.25500000        2.17372376        0.00000000
      0.00000000        0.00000000        2.51000000
 CONVVEC
      2.51000000        0.00000000        0.00000000
     -1.25500000        2.17372376        0.00000000
      0.00000000        0.00000000        2.51000000
 PRIMCOORD
        2 1
27        0.00000000        0.00000000        0.00000000
27        0.00000000        1.44914918        1.25500000
