 # Positions of grains centers of mass
 CRYSTAL
 PRIMVEC
    100.00000000        0.00000000        0.00000000
      0.00000000      100.00000000        0.00000000
      0.00000000        0.00000000       50.00000000
 CONVVEC
    100.00000000        0.00000000        0.00000000
      0.00000000      100.00000000        0.00000000
      0.00000000        0.00000000       50.00000000
 PRIMCOORD
        2 1
1       44.84954830       22.56361619      -22.78067945
1       44.84617217       22.58520860      -22.78407962
