 # Positions of nodes
 CRYSTAL
 PRIMVEC
    100.00000000        0.00000000        0.00000000
      0.00000000      100.00000000        0.00000000
      0.00000000        0.00000000       50.00000000
 CONVVEC
    100.00000000        0.00000000        0.00000000
      0.00000000      100.00000000        0.00000000
      0.00000000        0.00000000       50.00000000
 PRIMCOORD
        2 1
1       50.00000000       25.00000000        0.00000000
1       50.00000000       75.00000000        0.00000000
